
This summary information was generated by AeroDyn on 03-Nov-2023 at 18:13:54.

======  General Options  ============================================================================
            0  WakeMod        - Type of wake/induction model: steady
            1  AFAeroMod      - Type of blade airfoil aerodynamics model: steady
            0  TwrPotent      - Type of tower influence on wind based on potential flow around the tower: none
            0  TwrShadow      - Type of tower influence on wind based on downstream tower shadow: none
            F  TwrAero        - Calculate tower aerodynamic loads? No
            F  CavitCheck     - Perform cavitation check? No
            F  Buoyancy       - Include buoyancy effects? No
======  Outputs  ====================================================================================
            9  NBlOuts        - Number of blade nodes selected for output
          307  NumBlNds       - Number of blade nodes in the analysis
               Blade nodes selected for output:  Output node  Analysis node
                                                 -----------  -------------
                                                           1              1
                                                           2              3
                                                           3              5
                                                           4              8
                                                           5             10
                                                           6             13
                                                           7             15
                                                           8             17
                                                           9             19
            0  NTwOuts        - Number of tower nodes selected for output

               Requested Output Channels:
                Col   Parameter            Units               
                ---   ---------------      ---------------     
                  0   Time                 (s)                 


               Requested Output Channels at each blade station:
                Col   Parameter            Units               
                ---   ---------------      ---------------     
                  1   Alpha                (deg)               
                  2   VUndx                (m/s)               
                  3   Fl                   (N/m)               
                  4   Fd                   (N/m)               


Buoyancy parameters:

Hub volume (m^3):           0.000
Nacelle volume (m^3):       0.000
Total blade volume (m^3):   0.000
Tower volume (m^3):         0.000
